Bye Line 1
 2
Seeya 3
ine 4
New Line. This is exciting!
